Circuit: * C:\eee1\Asynth\Anasynser\Amplitude modulator.asc

WARNING: Node NC_03 is floating.
WARNING: Node NC_05 is floating.
WARNING: Node NC_07 is floating.

WARNING: Less than two connections to node NC_01.  This node is used by R3.
WARNING: Less than two connections to node NC_02.  This node is used by D3.
WARNING: Less than two connections to node NC_03.  This node is used by D3.
WARNING: Less than two connections to node NC_04.  This node is used by D1.
WARNING: Less than two connections to node NC_05.  This node is used by D1.
WARNING: Less than two connections to node NC_06.  This node is used by D2.
WARNING: Less than two connections to node NC_07.  This node is used by D2.
Direct Newton iteration failed to find .op point.  (Use ".option noopiter" to skip.)
Starting Gmin stepping
Gmin = 10
Gmin = 1.07374
Gmin = 0.115292
Gmin = 0.0123794
Gmin = 0.00132923
Gmin = 0.000142725
Gmin = 1.5325e-005
Gmin = 1.6455e-006
Gmin = 1.76685e-007
Gmin = 1.89714e-008
Gmin = 2.03704e-009
Gmin = 2.18725e-010
Gmin = 2.34854e-011
Gmin = 2.52173e-012
Gmin = 2.70769e-013
Gmin = 0
Gmin stepping succeeded in finding the operating point.


Date: Fri Jun 05 14:07:45 2020
Total elapsed time: 6.253 seconds.

tnom = 27
temp = 27
method = modified trap
totiter = 576922
traniter = 576339
tranpoints = 177210
accept = 123170
rejected = 54040
matrix size = 41
fillins = 17
solver = Normal
Thread vector: 12.2/7.0[2] 2.9/2.3[2] 1.1/3.4[1] 0.2/1.3[1]  2592/500
Matrix Compiler1: 2.62 KB object code size  0.6/0.8/[0.2]
Matrix Compiler2: 3.82 KB object code size  0.5/0.7/[0.4]

