Circuit: * C:\eee1\Asynth\Anasynser\Amplitude modulator.asc

WARNING: Node NC_03 is floating.
WARNING: Node NC_05 is floating.
WARNING: Node NC_07 is floating.

WARNING: Less than two connections to node NC_01.  This node is used by R3.
WARNING: Less than two connections to node NC_02.  This node is used by D3.
WARNING: Less than two connections to node NC_03.  This node is used by D3.
WARNING: Less than two connections to node NC_04.  This node is used by D1.
WARNING: Less than two connections to node NC_05.  This node is used by D1.
WARNING: Less than two connections to node NC_06.  This node is used by D2.
WARNING: Less than two connections to node NC_07.  This node is used by D2.
Direct Newton iteration for .op point succeeded.

Date: Tue Jun 02 08:58:33 2020
Total elapsed time: 1.392 seconds.

tnom = 27
temp = 27
method = modified trap
totiter = 166174
traniter = 166147
tranpoints = 52500
accept = 35366
rejected = 17134
matrix size = 48
fillins = 32
solver = Normal
Matrix Compiler1: 3.41 KB object code size  0.8/0.5/[0.3]
Matrix Compiler2: off  [0.5]/1.3/0.5

