Circuit: * C:\eee1\Asynth\Anasynser\Draft1.asc

.OP point found by inspection.

Date: Mon Jun 01 17:44:24 2020
Total elapsed time: 0.486 seconds.

tnom = 27
temp = 27
method = modified trap
totiter = 9646
traniter = 9646
tranpoints = 3287
accept = 2686
rejected = 601
matrix size = 11
fillins = 0
solver = Normal
Matrix Compiler1: 512 bytes object code size  0.1/0.1/[0.1]
Matrix Compiler2: 807 bytes object code size  0.1/0.1/[0.1]

