Circuit: * C:\eee1\Asynth\Anasynser\Draft2.asc

Direct Newton iteration for .op point succeeded.

Date: Tue Jun 02 12:28:12 2020
Total elapsed time: 0.394 seconds.

tnom = 27
temp = 27
method = modified trap
totiter = 2178
traniter = 2175
tranpoints = 1063
accept = 1060
rejected = 3
matrix size = 5
fillins = 0
solver = Normal
Matrix Compiler1: 96 bytes object code size  0.1/0.1/[0.1]
Matrix Compiler2: 287 bytes object code size  0.2/0.2/[0.2]

