Circuit: * C:\eee1\Asynth\Anasynser\Pure_PWL_input.asc

Limiting rise time of source v1 to 0.1
Limiting fall time of source v1 to 0.1
Direct Newton iteration for .op point succeeded.

Date: Mon Jun 01 03:40:15 2020
Total elapsed time: 0.493 seconds.

tnom = 27
temp = 27
method = modified trap
totiter = 2243
traniter = 2238
tranpoints = 1101
accept = 1089
rejected = 12
matrix size = 10
fillins = 0
solver = Normal
Matrix Compiler1: 426 bytes object code size  0.2/0.2/[0.1]
Matrix Compiler2: 700 bytes object code size  0.1/0.2/[0.1]

