Circuit: * C:\eee1\Asynth\Anasynser\Pure_PWL_input.asc

Limiting rise time of source v1 to 0.1
Limiting fall time of source v1 to 0.1
Direct Newton iteration for .op point succeeded.

Date: Mon Jun 01 04:33:25 2020
Total elapsed time: 0.570 seconds.

tnom = 27
temp = 27
method = modified trap
totiter = 2342
traniter = 2299
tranpoints = 1144
accept = 1129
rejected = 15
matrix size = 11
fillins = 0
solver = Normal
Matrix Compiler1: 512 bytes object code size  0.3/0.2/[0.2]
Matrix Compiler2: 807 bytes object code size  0.2/0.4/[0.2]

