Circuit: * C:\eee1\Asynth\Anasynser\series power supply.asc

WARNING: Less than two connections to node N007.  This node is used by V2.

Date: Sun May 31 12:11:14 2020
Total elapsed time: 0.173 seconds.

tnom = 27
temp = 27
method = trap
totiter = 2008
traniter = 0
tranpoints = 0
accept = 0
rejected = 0
matrix size = 14
fillins = 0
solver = Normal
Matrix Compiler1: 384 bytes object code size  0.1/0.1/[0.1]
Matrix Compiler2: 896 bytes object code size  0.1/0.2/[0.1]

