Circuit: * C:\eee1\Asynth\Anasynser\Sine_wave_oscilator_SW.asc

Limiting rise time of source v9 to 0.1
Limiting fall time of source v9 to 0.1
Limiting rise time of source v8 to 0.1
Limiting fall time of source v8 to 0.1
Limiting rise time of source v7 to 0.1
Limiting fall time of source v7 to 0.1
Limiting rise time of source v6 to 0.1
Limiting fall time of source v6 to 0.1
Limiting rise time of source v5 to 0.1
Limiting fall time of source v5 to 0.1
Limiting rise time of source v4 to 0.1
Limiting fall time of source v4 to 0.1
Limiting rise time of source v2 to 0.1
Limiting fall time of source v2 to 0.1
WARNING: Node OUTPUT is floating.
WARNING: Node N004 is floating.
WARNING: Node NC_02 is floating.
WARNING: Node NC_01 is floating.
WARNING: Node N002 is floating.

WARNING: Less than two connections to node OUTPUT.  This node is used by C3.
WARNING: Less than two connections to node NC_02.  This node is used by J:U1:1.
WARNING: Less than two connections to node NC_01.  This node is used by J:U1:2.
Direct Newton iteration failed to find .op point.  (Use ".option noopiter" to skip.)
Starting Gmin stepping
Gmin = 10
vernier = 0.5
vernier = 0.25
vernier = 0.125
Gmin = 4.81882
vernier = 0.0625
vernier = 0.03125
vernier = 0.015625
vernier = 0.0078125
Gmin = 4.77215
vernier = 0.00390625
vernier = 0.00195313
vernier = 0.000976563
vernier = 0.000488281
Gmin = 4.77913
Gmin = 0
Gmin stepping succeeded in finding the operating point.


Date: Wed Jun 03 04:22:10 2020
Total elapsed time: 0.291 seconds.

tnom = 27
temp = 27
method = modified trap
totiter = 5572
traniter = 4162
tranpoints = 1490
accept = 1384
rejected = 106
matrix size = 67
fillins = 101
solver = Normal
Thread vector: 6.5/5.0[2] 2.4/1.9[2] 2.8/2.0[2] 0.3/1.2[1]  2592/500
Matrix Compiler1: 8.78 KB object code size  1.5/1.1/[0.5]
Matrix Compiler2: 6.92 KB object code size  0.7/1.0/[0.3]

