Circuit: * C:\eee1\Asynth\Anasynser\Sine_wave_oscilator.asc

Limiting rise time of source v9 to 0.1
Limiting fall time of source v9 to 0.1
Limiting rise time of source v8 to 0.1
Limiting fall time of source v8 to 0.1
Limiting rise time of source v7 to 0.1
Limiting fall time of source v7 to 0.1
Limiting rise time of source v6 to 0.1
Limiting fall time of source v6 to 0.1
Limiting rise time of source v5 to 0.1
Limiting fall time of source v5 to 0.1
Limiting rise time of source v4 to 0.1
Limiting fall time of source v4 to 0.1
Limiting rise time of source v2 to 0.1
Limiting fall time of source v2 to 0.1
WARNING: Node OUTPUT is floating.
WARNING: Node NC_02 is floating.
WARNING: Node NC_01 is floating.

WARNING: Less than two connections to node OUTPUT.  This node is used by C3.
WARNING: Less than two connections to node NC_02.  This node is used by J:U1:1.
WARNING: Less than two connections to node NC_01.  This node is used by J:U1:2.
Direct Newton iteration failed to find .op point.  (Use ".option noopiter" to skip.)
Starting Gmin stepping
Gmin = 10
vernier = 0.5
vernier = 0.25
Gmin = 2.62144
vernier = 0.125
vernier = 0.0625
vernier = 0.03125
Gmin = 2.3374
vernier = 0.015625
vernier = 0.0078125
vernier = 0.00390625
vernier = 0.00195313
Gmin = 2.34307
vernier = 0.000976563
vernier = 0.000488281
Gmin = 0
Gmin stepping failed

Starting source stepping with srcstepmethod=0
Source Step = 3.0303%
Source Step = 33.3333%
Source Step = 63.6364%
Source Step = 93.9394%
Source Step = 96.9815%
Source Step = 97.0111%
Source Step = 97.0407%
Source Step = 97.0703%
Source Step = 97.0999%
vernier = 0.00146484
Source Step = 97.1325%
Source Step = 97.1768%
Source Step = 97.2212%
Source Step = 97.2656%
Source Step = 97.31%
vernier = 0.00219727
Source Step = 97.3566%
Source Step = 97.4232%
Source Step = 97.4898%
Source Step = 97.5564%
Source Step = 97.623%
Source Step = 97.6895%
vernier = 0.0032959
Source Step = 97.7894%
Source Step = 97.8893%
Source Step = 97.9892%
Source Step = 98.089%
Source Step = 98.1889%
vernier = 0.00494385
Source Step = 98.3337%
Source Step = 98.4836%
Source Step = 98.6334%
Source Step = 98.7832%
Source Step = 98.933%
vernier = 0.00741577
Source Step = 99.1427%
Source Step = 99.3675%
Source Step = 99.5922%
Source Step = 99.8169%
Source stepping succeeded in finding the operating point.


Date: Mon Jun 01 19:19:30 2020
Total elapsed time: 0.781 seconds.

tnom = 27
temp = 27
method = modified trap
totiter = 6344
traniter = 2714
tranpoints = 1323
accept = 1256
rejected = 67
matrix size = 92
fillins = 210
solver = Normal
Thread vector: 20.4/15.9[2] 2.9/3.9[1] 3.6/2.4[2] 0.8/3.4[1]  2592/500
Matrix Compiler1: 19.75 KB object code size  3.8/1.7/[0.9]
Matrix Compiler2: 11.08 KB object code size  2.4/3.2/[1.2]

