Circuit: * C:\eee1\Asynth\Anasynser\Switch_varistor.asc

WARNING: Node NC_06 is floating.

WARNING: Less than two connections to node NC_05.  This node is used by V2.
WARNING: Less than two connections to node NC_06.  This node is used by V2.

Date: Sun May 31 12:29:00 2020
Total elapsed time: 0.100 seconds.

tnom = 27
temp = 27
method = trap
totiter = 1003
traniter = 0
tranpoints = 0
accept = 0
rejected = 0
matrix size = 6
fillins = 0
solver = Normal
Matrix Compiler1: 110 bytes object code size  0.1/0.1/[0.0]
Matrix Compiler2: 326 bytes object code size  0.0/0.1/[0.0]

