Circuit: * C:\eee1\Asynth\Anasynser\Varactor_test.asc

Direct Newton iteration for .op point succeeded.

Date: Sun May 31 11:57:57 2020
Total elapsed time: 0.093 seconds.

tnom = 27
temp = 27
method = modified trap
totiter = 2086
traniter = 2082
tranpoints = 1042
accept = 1042
rejected = 0
matrix size = 6
fillins = 0
solver = Normal
Matrix Compiler1: 272 bytes object code size  0.1/0.0/[0.0]
Matrix Compiler2: 412 bytes object code size  0.1/0.1/[0.0]

